CM Example 1 :	Dipole in free space 	
CM See GetStarted.txt
CM 
CM 
CM 
CM 
CE
GW	1	20	0	-0.0545	0	0	0.0545	0	0.001	'Wire 1, 9 segments, halve wavelength long.
GW	2	20	0.042	-0.049	0	0.042	0.049	0	0.001
GW	3	20	0.073	-0.0365	0	0.073	0.0365	0	0.001
GW	4	20	0.105	-0.036	0	0.105	0.036	0	0.001
GW	6	20	0.137	-0.0355	0	0.137	0.0355	0	0.001
GW	7	20	0.169	-0.035	0	0.169	0.035	0	0.001
GW	5	20	0.201	-0.0345	0	0.201	0.0345	0	0.001
GW	8	20	0.233	-0.034	0	0.233	0.034	0	0.001
GW	9	20	0.265	-0.0335	0	0.265	0.0335	0	0.001
GW	10	20	0.297	-0.033	0	0.297	0.033	0	0.001
GW	11	20	0.329	-0.0325	0	0.329	0.0325	0	0.001
GE	0
LD	5	0	0	0	37700000

GN	-1
EK
EX	0	2	10	0	1	0	0	'Voltage source (1+j0) at wire 1 segment 5.


FR	0	0	0	0	1850	0
EN
